data/env_dijon_v2_assistant/grid.xiidm
<?xml version="1.0" encoding="UTF-8"?>
<iidm:network xmlns:iidm="http://www.powsybl.org/schema/iidm/1_13" xmlns:bbsp="http://www.itesla_project.eu/schema/iidm/ext/busbarsectionposition/1_0" xmlns:io="http://www.itesla_project.eu/schema/iidm/ext/injection_observability/1_0" xmlns:m="http://www.powsybl.org/schema/iidm/ext/measurements/1_0" xmlns:cp="http://www.powsybl.org/schema/iidm/ext/connectable_position/1_1" xmlns:ld="http://www.itesla_project.eu/schema/iidm/ext/load_detail/1_0" xmlns:gs="http://www.powsybl.org/schema/iidm/ext/generator_startup/1_1" xmlns:apc="http://www.powsybl.org/schema/iidm/ext/active_power_control/1_2" xmlns:bo="http://www.itesla_project.eu/schema/iidm/ext/branch_observability/1_0" xmlns:clps="http://www.powsybl.org/schema/iidm/ext/current-limits-per-season/1_13" xmlns:reft="http://www.powsybl.org/schema/iidm/ext/reference_terminals/1_0" xmlns:slt="http://www.powsybl.org/schema/iidm/ext/slack_terminal/1_5" id="PtFige-20240828-0935-enrichi" caseDate="2024-08-28T09:35:00.000+02:00" forecastDistance="0" sourceFormat="NF" minimumValidationLevel="STEADY_STATE_HYPOTHESIS">
    <iidm:substation id="GEN.P" country="FR" tso="RTE">
        <iidm:property name="paysCvg" value="FRANCE"/>
        <iidm:property name="regionCvg" value="LYON"/>
        <iidm:voltageLevel id="1GEN.P7" nominalV="400.0" lowVoltageLimit="280.0" highVoltageLimit="520.0" topologyKind="NODE_BREAKER">
            <iidm:property name="codeOI" value="1GEN.-P71"/>
            <iidm:nodeBreakerTopology>
                <iidm:busbarSection id="1GEN.P7_1" name="1" node="0"/>
                <iidm:switch id="1GEN.P7_1GEN.P7-1GEN.P7.SJB.0-GEN.PAT761E1SA_F" name="1GEN.P7-1GEN.P7.SJB.0-GEN.PAT761E1SA_F" fictitious="true" kind="DISCONNECTOR" retained="false" open="false" node1="0" node2="1"/>
                <iidm:switch id="1GEN.P7_1GEN.P7-1GEN.P7.SJB.0-GEN.PAT761E2SA_F" name="1GEN.P7-1GEN.P7.SJB.0-GEN.PAT761E2SA_F" fictitious="true" kind="DISCONNECTOR" retained="false" open="false" node1="0" node2="2"/>
                <iidm:switch id="1GEN.P7_1GEN.P7-1GEN.P7.SJB.0-GEN.PAT761E3SA_F" name="1GEN.P7-1GEN.P7.SJB.0-GEN.PAT761E3SA_F" fictitious="true" kind="DISCONNECTOR" retained="false" open="false" node1="0" node2="3"/>
                <iidm:bus v="414.3500702414015" angle="-1.9619831092821367" nodes="0,1,2,3"/>
            </iidm:nodeBreakerTopology>
            <iidm:load id="GEN.PY711" loadType="FICTITIOUS" p0="1.4210854715202004E-14" q0="0.0" node="3" p="1.4210854715202004E-14" q="0.0"/>
        </iidm:voltageLevel>
        <iidm:voltageLevel id="GEN.PP6" nominalV="225.0" lowVoltageLimit="220.0" highVoltageLimit="245.00001525878906" topologyKind="NODE_BREAKER">
            <iidm:property name="codeOI" value="GEN.P-P61"/>
            <iidm:nodeBreakerTopology>
                <iidm:busbarSection id="GEN.PP6_1A" name="1A" node="0"/>
                <iidm:busbarSection id="GEN.PP6_1B" name="1B" node="1"/>
                <iidm:busbarSection id="GEN.PP6_2A" name="2A" node="2"/>
                <iidm:busbarSection id="GEN.PP6_2B" name="2B" node="3"/>
                <iidm:switch id="GEN.PP6_GEN.P6TRO.2AB SA.2A_OC" name="GEN.P6TRO.2AB SA.2A_OC" kind="DISCONNECTOR" retained="false" open="false" node1="23" node2="2"/>
                <iidm:switch id="GEN.PP6_GEN.P6VOUGL.1 SA.1_OC" name="GEN.P6VOUGL.1 SA.1_OC" kind="DISCONNECTOR" retained="false" open="true" node1="1" node2="24"/>
                <iidm:switch id="GEN.PP6_GEN.P6GENIS.2 SA.1_OC" name="GEN.P6GENIS.2 SA.1_OC" kind="DISCONNECTOR" retained="false" open="false" node1="0" node2="25"/>
                <iidm:switch id="GEN.PP6_GEN.P6AT761 SA.1_OC" name="GEN.P6AT761 SA.1_OC" kind="DISCONNECTOR" retained="false" open="true" node1="1" node2="26"/>
                <iidm:switch id="GEN.PP6_GEN.P6CHAV6.1 SA.1_OC" name="GEN.P6CHAV6.1 SA.1_OC" kind="DISCONNECTOR" retained="false" open="false" node1="0" node2="27"/>
                <iidm:switch id="GEN.PP6_GEN.P6GENIS.1 SA.2_OC" name="GEN.P6GENIS.1 SA.2_OC" kind="DISCONNECTOR" retained="false" open="false" node1="2" node2="28"/>
                <iidm:switch id="GEN.PP6_GEN.P6GENIS.5 SA.2_OC" name="GEN.P6GENIS.5 SA.2_OC" kind="DISCONNECTOR" retained="false" open="true" node1="3" node2="29"/>
                <iidm:switch id="GEN.PP6_GEN.P6ZCRUS.1 SA.2_OC" name="GEN.P6ZCRUS.1 SA.2_OC" kind="DISCONNECTOR" retained="false" open="true" node1="3" node2="30"/>
                <iidm:switch id="GEN.PP6_GEN.P6GENIS.4 SA.2_OC" name="GEN.P6GENIS.4 SA.2_OC" kind="DISCONNECTOR" retained="false" open="false" node1="3" node2="31"/>
                <iidm:switch id="GEN.PP6_GEN.P6ZCRUS.1 SA.1_OC" name="GEN.P6ZCRUS.1 SA.1_OC" kind="DISCONNECTOR" retained="false" open="false" node1="1" node2="30"/>
                <iidm:switch id="GEN.PP6_GEN.P6COUPL.A SA.1_OC" name="GEN.P6COUPL.A SA.1_OC" kind="DISCONNECTOR" retained="false" open="false" node1="32" node2="0"/>
                <iidm:switch id="GEN.PP6_GEN.P6GENIS.3 SA.2_OC" name="GEN.P6GENIS.3 SA.2_OC" kind="DISCONNECTOR" retained="false" open="false" node1="3" node2="33"/>
                <iidm:switch id="GEN.PP6_GEN.P6COUPL.A SA.2_OC" name="GEN.P6COUPL.A SA.2_OC" kind="DISCONNECTOR" retained="false" open="false" node1="2" node2="34"/>
                <iidm:switch id="GEN.PP6_GEN.P6AT762 SA.2_OC" name="GEN.P6AT762 SA.2_OC" kind="DISCONNECTOR" retained="false" open="false" node1="2" node2="35"/>
                <iidm:switch id="GEN.PP6_GEN.P6GENIS.3 SA.1_OC" name="GEN.P6GENIS.3 SA.1_OC" kind="DISCONNECTOR" retained="false" open="true" node1="1" node2="33"/>
                <iidm:switch id="GEN.PP6_GEN.P6CORNI.2 SA.2_OC" name="GEN.P6CORNI.2 SA.2_OC" kind="DISCONNECTOR" retained="false" open="true" node1="2" node2="36"/>
                <iidm:switch id="GEN.PP6_GEN.P6COUPL.B SA.2_OC" name="GEN.P6COUPL.B SA.2_OC" kind="DISCONNECTOR" retained="false" open="false" node1="3" node2="37"/>
                <iidm:switch id="GEN.PP6_GEN.P6TRO.1AB SA.1A_OC" name="GEN.P6TRO.1AB SA.1A_OC" kind="DISCONNECTOR" retained="false" open="false" node1="38" node2="0"/>
                <iidm:switch id="GEN.PP6_GEN.P6GENIS.5 SA.1_OC" name="GEN.P6GENIS.5 SA.1_OC" kind="DISCONNECTOR" retained="false" open="false" node1="1" node2="29"/>
                <iidm:switch id="GEN.PP6_GEN.P6GENIS.1 SA.1_OC" name="GEN.P6GENIS.1 SA.1_OC" kind="DISCONNECTOR" retained="false" open="true" node1="0" node2="28"/>
                <iidm:switch id="GEN.PP6_GEN.P6IZERN.1 SA.1_OC" name="GEN.P6IZERN.1 SA.1_OC" kind="DISCONNECTOR" retained="false" open="true" node1="0" node2="39"/>
                <iidm:switch id="GEN.PP6_GEN.P6.VERB.2 SA.2_OC" name="GEN.P6.VERB.2 SA.2_OC" kind="DISCONNECTOR" retained="false" open="false" node1="3" node2="40"/>
                <iidm:switch id="GEN.PP6_GEN.P6AT762 SA.1_OC" name="GEN.P6AT762 SA.1_OC" kind="DISCONNECTOR" retained="false" open="true" node1="0" node2="35"/>
                <iidm:switch id="GEN.PP6_GEN.P6AT761 SA.2_OC" name="GEN.P6AT761 SA.2_OC" kind="DISCONNECTOR" retained="false" open="false" node1="3" node2="26"/>
                <iidm:switch id="GEN.PP6_GEN.P6IZERN.1 SA.2_OC" name="GEN.P6IZERN.1 SA.2_OC" kind="DISCONNECTOR" retained="false" open="false" node1="2" node2="39"/>
                <iidm:switch id="GEN.PP6_GEN.P6COUPL.B SA.1_OC" name="GEN.P6COUPL.B SA.1_OC" kind="DISCONNECTOR" retained="false" open="false" node1="41" node2="1"/>
                <iidm:switch id="GEN.PP6_GEN.P6BOISS.1 SA.2_OC" name="GEN.P6BOISS.1 SA.2_OC" kind="DISCONNECTOR" retained="false" open="true" node1="3" node2="42"/>
                <iidm:switch id="GEN.PP6_GEN.P6CORNI.2 SA.1_OC" name="GEN.P6CORNI.2 SA.1_OC" kind="DISCONNECTOR" retained="false" open="false" node1="0" node2="36"/>
                <iidm:switch id="GEN.PP6_GEN.P6TRO.1AB SA.1B_OC" name="GEN.P6TRO.1AB SA.1B_OC" kind="DISCONNECTOR" retained="false" open="false" node1="1" node2="43"/>
                <iidm:switch id="GEN.PP6_GEN.P6VOUGL.1 SA.2_OC" name="GEN.P6VOUGL.1 SA.2_OC" kind="DISCONNECTOR" retained="false" open="false" node1="3" node2="24"/>
                <iidm:switch id="GEN.PP6_GEN.P6CPNOL.1 SA.2_OC" name="GEN.P6CPNOL.1 SA.2_OC" kind="DISCONNECTOR" retained="false" open="false" node1="3" node2="44"/>
                <iidm:switch id="GEN.PP6_GEN.P6ARLOD.1 SA.1_OC" name="GEN.P6ARLOD.1 SA.1_OC" kind="DISCONNECTOR" retained="false" open="false" node1="1" node2="45"/>
                <iidm:switch id="GEN.PP6_GEN.P6CPNOL.1 SA.1_OC" name="GEN.P6CPNOL.1 SA.1_OC" kind="DISCONNECTOR" retained="false" open="false" node1="1" node2="44"/>
                <iidm:switch id="GEN.PP6_GEN.P6.VERB.1 SA.2_OC" name="GEN.P6.VERB.1 SA.2_OC" kind="DISCONNECTOR" retained="false" open="false" node1="2" node2="46"/>
                <iidm:switch id="GEN.PP6_GEN.P6CHAV6.1 SA.2_OC" name="GEN.P6CHAV6.1 SA.2_OC" kind="DISCONNECTOR" retained="false" open="true" node1="2" node2="27"/>
                <iidm:switch id="GEN.PP6_GEN.P6GENIS.6 SA.2_OC" name="GEN.P6GENIS.6 SA.2_OC" kind="DISCONNECTOR" retained="false" open="false" node1="2" node2="47"/>
                <iidm:switch id="GEN.PP6_GEN.P6TRO.2AB SA.2B_OC" name="GEN.P6TRO.2AB SA.2B_OC" kind="DISCONNECTOR" retained="false" open="false" node1="3" node2="48"/>
                <iidm:switch id="GEN.PP6_GEN.P6GENIS.6 SA.1_OC" name="GEN.P6GENIS.6 SA.1_OC" kind="DISCONNECTOR" retained="false" open="true" node1="0" node2="47"/>
                <iidm:switch id="GEN.PP6_GEN.P6ARLOD.1 SA.2_OC" name="GEN.P6ARLOD.1 SA.2_OC" kind="DISCONNECTOR" retained="false" open="true" node1="3" node2="45"/>
                <iidm:switch id="GEN.PP6_GEN.P6GENIS.4 SA.1_OC" name="GEN.P6GENIS.4 SA.1_OC" kind="DISCONNECTOR" retained="false" open="true" node1="1" node2="31"/>
                <iidm:switch id="GEN.PP6_GEN.P6.VERB.1 SA.1_OC" name="GEN.P6.VERB.1 SA.1_OC" kind="DISCONNECTOR" retained="false" open="true" node1="0" node2="46"/>
                <iidm:switch id="GEN.PP6_GEN.P6.VERB.2 SA.1_OC" name="GEN.P6.VERB.2 SA.1_OC" kind="DISCONNECTOR" retained="false" open="true" node1="1" node2="40"/>
                <iidm:switch id="GEN.PP6_GEN.P6SERRI.1 SA.2_OC" name="GEN.P6SERRI.1 SA.2_OC" kind="DISCONNECTOR" retained="false" open="true" node1="3" node2="49"/>
                <iidm:switch id="GEN.PP6_GEN.P6GENIS.2 SA.2_OC" name="GEN.P6GENIS.2 SA.2_OC" kind="DISCONNECTOR" retained="false" open="true" node1="2" node2="25"/>
                <iidm:switch id="GEN.PP6_GEN.P6BOISS.1 SA.1_OC" name="GEN.P6BOISS.1 SA.1_OC" kind="DISCONNECTOR" retained="false" open="false" node1="1" node2="42"/>
                <iidm:switch id="GEN.PP6_GEN.P6SERRI.1 SA.1_OC" name="GEN.P6SERRI.1 SA.1_OC" kind="DISCONNECTOR" retained="false" open="false" node1="1" node2="49"/>
                <iidm:switch id="GEN.PP6_GEN.P6AT761 DJ_OC" name="GEN.P6AT761 DJ_OC" kind="BREAKER" retained="true" open="false" node1="26" node2="5"/>
                <iidm:switch id="GEN.PP6_GEN.P6GENIS.5 DJ.HT_OC" name="GEN.P6GENIS.5 DJ.HT_OC" kind="BREAKER" retained="true" open="false" node1="29" node2="11"/>
                <iidm:switch id="GEN.PP6_GEN.P6AT762 DJ_OC" name="GEN.P6AT762 DJ_OC" kind="BREAKER" retained="true" open="false" node1="35" node2="4"/>
                <iidm:switch id="GEN.PP6_GEN.P6.VERB.2 DJ_OC" name="GEN.P6.VERB.2 DJ_OC" kind="BREAKER" retained="true" open="false" node1="40" node2="18"/>
                <iidm:switch id="GEN.PP6_GEN.P6GENIS.1 DJ.HT_OC" name="GEN.P6GENIS.1 DJ.HT_OC" kind="BREAKER" retained="true" open="false" node1="28" node2="14"/>
                <iidm:switch id="GEN.PP6_GEN.P6COUPL.B DJ_OC" name="GEN.P6COUPL.B DJ_OC" kind="BREAKER" retained="true" open="false" node1="37" node2="41"/>
                <iidm:switch id="GEN.PP6_GEN.P6ZCRUS.1 DJ_OC" name="GEN.P6ZCRUS.1 DJ_OC" kind="BREAKER" retained="true" open="false" node1="30" node2="17"/>
                <iidm:switch id="GEN.PP6_GEN.P6BOISS.1 DJ_OC" name="GEN.P6BOISS.1 DJ_OC" kind="BREAKER" retained="true" open="false" node1="42" node2="9"/>
                <iidm:switch id="GEN.PP6_GEN.P6CORNI.2 DJ_OC" name="GEN.P6CORNI.2 DJ_OC" kind="BREAKER" retained="true" open="false" node1="36" node2="19"/>
                <iidm:switch id="GEN.PP6_GEN.P6IZERN.1 DJ_OC" name="GEN.P6IZERN.1 DJ_OC" kind="BREAKER" retained="true" open="false" node1="39" node2="10"/>
                <iidm:switch id="GEN.PP6_GEN.P6CPNOL.1 DJ_OC" name="GEN.P6CPNOL.1 DJ_OC" kind="BREAKER" retained="true" open="false" node1="44" node2="21"/>
                <iidm:switch id="GEN.PP6_GEN.P6SERRI.1 DJ_OC" name="GEN.P6SERRI.1 DJ_OC" kind="BREAKER" retained="true" open="false" node1="49" node2="8"/>
                <iidm:switch id="GEN.PP6_GEN.P6GENIS.3 DJ.HT_OC" name="GEN.P6GENIS.3 DJ.HT_OC" kind="BREAKER" retained="true" open="false" node1="33" node2="7"/>
                <iidm:switch id="GEN.PP6_GEN.P6GENIS.6 DJ.HT_OC" name="GEN.P6GENIS.6 DJ.HT_OC" kind="BREAKER" retained="true" open="false" node1="47" node2="6"/>
                <iidm:switch id="GEN.PP6_GEN.P6.VERB.1 DJ_OC" name="GEN.P6.VERB.1 DJ_OC" kind="BREAKER" retained="true" open="false" node1="46" node2="16"/>
                <iidm:switch id="GEN.PP6_GEN.P6TRO.1AB DJ_OC" name="GEN.P6TRO.1AB DJ_OC" kind="BREAKER" retained="true" open="false" node1="43" node2="38"/>
                <iidm:switch id="GEN.PP6_GEN.P6ARLOD.1 DJ_OC" name="GEN.P6ARLOD.1 DJ_OC" kind="BREAKER" retained="true" open="false" node1="45" node2="22"/>
                <iidm:switch id="GEN.PP6_GEN.P6VOUGL.1 DJ_OC" name="GEN.P6VOUGL.1 DJ_OC" kind="BREAKER" retained="true" open="false" node1="24" node2="20"/>
                <iidm:switch id="GEN.PP6_GEN.P6TRO.2AB DJ_OC" name="GEN.P6TRO.2AB DJ_OC" kind="BREAKER" retained="true" open="false" node1="48" node2="23"/>
                <iidm:switch id="GEN.PP6_GEN.P6COUPL.A DJ_OC" name="GEN.P6COUPL.A DJ_OC" kind="BREAKER" retained="true" open="false" node1="34" node2="32"/>
                <iidm:switch id="GEN.PP6_GEN.P6GENIS.4 DJ.HT_OC" name="GEN.P6GENIS.4 DJ.HT_OC" kind="BREAKER" retained="true" open="false" node1="31" node2="15"/>
                <iidm:switch id="GEN.PP6_GEN.P6GENIS.2 DJ.HT_OC" name="GEN.P6GENIS.2 DJ.HT_OC" kind="BREAKER" retained="true" open="false" node1="25" node2="12"/>
                <iidm:switch id="GEN.PP6_GEN.P6CHAV6.1 DJ_OC" name="GEN.P6CHAV6.1 DJ_OC" kind="BREAKER" retained="true" open="false" node1="27" node2="13"/>
                <iidm:bus v="245.37267397284185" angle="-1.7521470097002851" nodes="0,1,2,3,4,5,6,7,8,9,10,11,12,13,14,15,16,17,18,19,20,21,22,23,24,25,26,27,28,29,30,31,32,33,34,35,36,37,38,39,40,41,42,43,44,45,46,47,48,49"/>
            </iidm:nodeBreakerTopology>
            <iidm:load id="GEN.PL61SERRI" loadType="FICTITIOUS" p0="54.907618278518385" q0="16.352949910768984" node="8" p="54.907618278518385" q="16.352949910768984"/>
            <iidm:load id="CHAV6L61GEN.P" loadType="FICTITIOUS" p0="103.28014447931514" q0="2.765073933113854" node="13" p="103.28014447931514" q="2.765073933113854"/>
            <iidm:load id=".VERBL61GEN.P" loadType="FICTITIOUS" p0="0.0" q0="0.0" node="16" p="0.0" q="0.0"/>
            <iidm:load id="GEN.PL61ZCRUS" loadType="FICTITIOUS" p0="-33.141030888330874" q0="-3.6142690556644084" node="17" p="-33.141030888330874" q="-3.6142690556644084"/>
            <iidm:load id=".VERBL62GEN.P" loadType="FICTITIOUS" p0="-19.543442261457926" q0="-27.9270732402847" node="18" p="-19.543442261457926" q="-27.9270732402847"/>
            <iidm:load id="CORNIL62GEN.P" loadType="FICTITIOUS" p0="-35.52799741135675" q0="-2.205040614533118" node="19" p="-35.52799741135675" q="-2.205040614533118"/>
            <iidm:load id="CPNOLL61GEN.P" loadType="FICTITIOUS" p0="0.0" q0="0.0" node="21" p="0.0" q="0.0"/>
            <iidm:load id="ARLODL61GEN.P" loadType="FICTITIOUS" p0="0.0" q0="0.0" node="22" p="0.0" q="0.0"/>
        </iidm:voltageLevel>
        <iidm:voltageLevel id="GEN.PP7" nominalV="400.0" lowVoltageLimit="390.0" highVoltageLimit="420.0" topologyKind="NODE_BREAKER">
            <iidm:property name="codeOI" value="GEN.P-P71"/>
            <iidm:nodeBreakerTopology>
                <iidm:busbarSection id="GEN.PP7_1.1" name="1.1" node="0"/>
                <iidm:busbarSection id="GEN.PP7_1.2" name="1.2" node="1"/>
                <iidm:busbarSection id="GEN.PP7_2.1" name="2.1" node="2"/>
                <iidm:busbarSection id="GEN.PP7_2.2" name="2.2" node="3"/>
                <iidm:switch id="GEN.PP7_GEN.P7AT762 SA.2_OC" name="GEN.P7AT762 SA.2_OC" kind="DISCONNECTOR" retained="false" open="true" node1="3" node2="14"/>
                <iidm:switch id="GEN.PP7_GEN.P7VIELM.1 SA.1_OC" name="GEN.P7VIELM.1 SA.1_OC" kind="DISCONNECTOR" retained="false" open="false" node1="1" node2="15"/>
                <iidm:switch id="GEN.PP7_GEN.P7SEC..12 SS.1.12_OC" name="GEN.P7SEC..12 SS.1.12_OC" kind="DISCONNECTOR" retained="false" open="false" node1="1" node2="0"/>
                <iidm:switch id="GEN.PP7_GEN.P7VIELM.2 SA.1_OC" name="GEN.P7VIELM.2 SA.1_OC" kind="DISCONNECTOR" retained="false" open="true" node1="0" node2="16"/>
                <iidm:switch id="GEN.PP7_GEN.P7COUPL.2 SA.1_OC" name="GEN.P7COUPL.2 SA.1_OC" kind="DISCONNECTOR" retained="false" open="true" node1="17" node2="1"/>
                <iidm:switch id="GEN.PP7_GEN.P7VIELM.3 SA.1_OC" name="GEN.P7VIELM.3 SA.1_OC" kind="DISCONNECTOR" retained="false" open="false" node1="1" node2="18"/>
                <iidm:switch id="GEN.PP7_GEN.P7CORNI.1 SA.2_OC" name="GEN.P7CORNI.1 SA.2_OC" kind="DISCONNECTOR" retained="false" open="true" node1="3" node2="19"/>
                <iidm:switch id="GEN.PP7_GEN.P7COUPL.1 SA.2_OC" name="GEN.P7COUPL.1 SA.2_OC" kind="DISCONNECTOR" retained="false" open="false" node1="2" node2="20"/>
                <iidm:switch id="GEN.PP7_GEN.P7CREYS.2 SA.2_OC" name="GEN.P7CREYS.2 SA.2_OC" kind="DISCONNECTOR" retained="false" open="true" node1="3" node2="21"/>
                <iidm:switch id="GEN.PP7_GEN.P7AT762 SA.1_OC" name="GEN.P7AT762 SA.1_OC" kind="DISCONNECTOR" retained="false" open="false" node1="1" node2="14"/>
                <iidm:switch id="GEN.PP7_GEN.P7B.TOL.1 SA.2_OC" name="GEN.P7B.TOL.1 SA.2_OC" kind="DISCONNECTOR" retained="false" open="true" node1="2" node2="22"/>
                <iidm:switch id="GEN.PP7_GEN.P7AT761 SA.1_OC" name="GEN.P7AT761 SA.1_OC" kind="DISCONNECTOR" retained="false" open="true" node1="0" node2="23"/>
                <iidm:switch id="GEN.PP7_GEN.P7FRASN.1 SA.2_OC" name="GEN.P7FRASN.1 SA.2_OC" kind="DISCONNECTOR" retained="false" open="false" node1="2" node2="24"/>
                <iidm:switch id="GEN.PP7_GEN.P7COUPL.1 SA.1_OC" name="GEN.P7COUPL.1 SA.1_OC" kind="DISCONNECTOR" retained="false" open="false" node1="25" node2="0"/>
                <iidm:switch id="GEN.PP7_GEN.P7AT761 SA.2_OC" name="GEN.P7AT761 SA.2_OC" kind="DISCONNECTOR" retained="false" open="false" node1="2" node2="23"/>
                <iidm:switch id="GEN.PP7_GEN.P7VIELM.1 SA.2_OC" name="GEN.P7VIELM.1 SA.2_OC" kind="DISCONNECTOR" retained="false" open="true" node1="3" node2="15"/>
                <iidm:switch id="GEN.PP7_GEN.P7CREYS.1 SA.2_OC" name="GEN.P7CREYS.1 SA.2_OC" kind="DISCONNECTOR" retained="false" open="false" node1="2" node2="26"/>
                <iidm:switch id="GEN.PP7_GEN.P7COUPL.2 SA.2_OC" name="GEN.P7COUPL.2 SA.2_OC" kind="DISCONNECTOR" retained="false" open="true" node1="3" node2="27"/>
                <iidm:switch id="GEN.PP7_GEN.P7B.TOL.1 SA.1_OC" name="GEN.P7B.TOL.1 SA.1_OC" kind="DISCONNECTOR" retained="false" open="false" node1="0" node2="22"/>
                <iidm:switch id="GEN.PP7_GEN.P7CREYS.2 SA.1_OC" name="GEN.P7CREYS.2 SA.1_OC" kind="DISCONNECTOR" retained="false" open="false" node1="1" node2="21"/>
                <iidm:switch id="GEN.PP7_GEN.P7CORNI.1 SA.1_OC" name="GEN.P7CORNI.1 SA.1_OC" kind="DISCONNECTOR" retained="false" open="false" node1="1" node2="19"/>
                <iidm:switch id="GEN.PP7_GEN.P7VIELM.2 SA.2_OC" name="GEN.P7VIELM.2 SA.2_OC" kind="DISCONNECTOR" retained="false" open="false" node1="2" node2="16"/>
                <iidm:switch id="GEN.PP7_GEN.P7VIELM.3 SA.2_OC" name="GEN.P7VIELM.3 SA.2_OC" kind="DISCONNECTOR" retained="false" open="true" node1="3" node2="18"/>
                <iidm:switch id="GEN.PP7_GEN.P7CREYS.1 SA.1_OC" name="GEN.P7CREYS.1 SA.1_OC" kind="DISCONNECTOR" retained="false" open="true" node1="0" node2="26"/>
                <iidm:switch id="GEN.PP7_GEN.P7FRASN.1 SA.1_OC" name="GEN.P7FRASN.1 SA.1_OC" kind="DISCONNECTOR" retained="false" open="true" node1="0" node2="24"/>
                <iidm:switch id="GEN.PP7_GEN.P7SEC..12 SS.2.12_OC" name="GEN.P7SEC..12 SS.2.12_OC" kind="DISCONNECTOR" retained="false" open="true" node1="3" node2="2"/>
                <iidm:switch id="GEN.PP7_GEN.P7FRASN.1 DJ_OC" name="GEN.P7FRASN.1 DJ_OC" kind="BREAKER" retained="true" open="false" node1="24" node2="9"/>
                <iidm:switch id="GEN.PP7_GEN.P7VIELM.3 DJ_OC" name="GEN.P7VIELM.3 DJ_OC" kind="BREAKER" retained="true" open="false" node1="18" node2="7"/>
                <iidm:switch id="GEN.PP7_GEN.P7VIELM.1 DJ_OC" name="GEN.P7VIELM.1 DJ_OC" kind="BREAKER" retained="true" open="false" node1="15" node2="11"/>
                <iidm:switch id="GEN.PP7_GEN.P7B.TOL.1 DJ_OC" name="GEN.P7B.TOL.1 DJ_OC" kind="BREAKER" retained="true" open="false" node1="22" node2="13"/>
                <iidm:switch id="GEN.PP7_GEN.P7AT762 DJ_OC" name="GEN.P7AT762 DJ_OC" kind="BREAKER" retained="true" open="false" node1="14" node2="4"/>
                <iidm:switch id="GEN.PP7_GEN.P7COUPL.1 DJ_OC" name="GEN.P7COUPL.1 DJ_OC" kind="BREAKER" retained="true" open="false" node1="20" node2="25"/>
                <iidm:switch id="GEN.PP7_GEN.P7CORNI.1 DJ_OC" name="GEN.P7CORNI.1 DJ_OC" kind="BREAKER" retained="true" open="false" node1="19" node2="6"/>
                <iidm:switch id="GEN.PP7_GEN.P7COUPL.2 DJ_OC" name="GEN.P7COUPL.2 DJ_OC" kind="BREAKER" retained="true" open="true" node1="27" node2="17"/>
                <iidm:switch id="GEN.PP7_GEN.P7CREYS.2 DJ_OC" name="GEN.P7CREYS.2 DJ_OC" kind="BREAKER" retained="true" open="false" node1="21" node2="8"/>
                <iidm:switch id="GEN.PP7_GEN.P7AT761 DJ_OC" name="GEN.P7AT761 DJ_OC" kind="BREAKER" retained="true" open="false" node1="23" node2="5"/>
                <iidm:switch id="GEN.PP7_GEN.P7VIELM.2 DJ_OC" name="GEN.P7VIELM.2 DJ_OC" kind="BREAKER" retained="true" open="false" node1="16" node2="10"/>
                <iidm:switch id="GEN.PP7_GEN.P7CREYS.1 DJ_OC" name="GEN.P7CREYS.1 DJ_OC" kind="BREAKER" retained="true" open="false" node1="26" node2="12"/>
                <iidm:bus v="416.127890092172" angle="-0.7509997314679966" nodes="0,1,2,4,5,6,7,8,9,10,11,12,13,14,15,16,18,19,20,21,22,23,24,25,26"/>
            </iidm:nodeBreakerTopology>
            <iidm:load id="CORNIL71GEN.P" loadType="FICTITIOUS" p0="65.38152877321465" q0="15.547697847325253" node="6" p="65.38152877321465" q="15.547697847325253"/>
            <iidm:load id="FRASNL71GEN.P" loadType="FICTITIOUS" p0="240.92367485701348" q0="-95.2777827434229" node="9" p="240.92367485701348" q="-95.2777827434229"/>
            <iidm:load id="B.TOLL71GEN.P" loadType="FICTITIOUS" p0="-181.578638166985" q0="31.621506766154198" node="13" p="-181.578638166985" q="31.621506766154198"/>
        </iidm:voltageLevel>
        <iidm:twoWindingsTransformer id="GEN.PY771" r="0.030012620612978935" x="42.300045013427734" g="9.744659337229677E-7" b="-7.541967534052674E-6" ratedU1="388.0" ratedU2="388.0" voltageLevelId1="GEN.PP7" node1="5" voltageLevelId2="1GEN.P7" node2="1" p1="86.32805192430678" q1="19.644619707792287" p2="-86.15796612238744" q2="-16.44309011218274" selectedOperationalLimitsGroupId1="DEFAULT">
            <iidm:property name="activeLimitId1" value="E1 PROT TR"/>
            <iidm:property name="STUDY_activeLimitId1" value="E1 PROT"/>
            <iidm:property name="STUDY_PROTECTION" value="E1 PROT, E1 PROT TLIM, H1 PROT, H1 PROT TLIM, H2 PROT, H2 PROT TLIM"/>
            <iidm:property name="TR_PROTECTION" value="E1 PROT TR"/>
            <iidm:property name="codeOI" value="GEN.P-Y761.1"/>
            <iidm:ratioTapChanger lowTapPosition="0" tapPosition="0" loadTapChangingCapabilities="false">
                <iidm:terminalRef id="GEN.PY771" side="TWO"/>
                <iidm:step r="0.0" x="0.0" g="0.0" b="0.0" rho="1.0"/>
            </iidm:ratioTapChanger>
            <iidm:operationalLimitsGroup1 id="DEFAULT">
                <iidm:currentLimits permanentLimit="9999.0"/>
            </iidm:operationalLimitsGroup1>
            <iidm:operationalLimitsGroup1 id="E1 PROT">
                <iidm:currentLimits permanentLimit="1659.0">
                    <iidm:temporaryLimit name="SUR20" acceptableDuration="1200" value="2164.0"/>
                    <iidm:temporaryLimit name="SUR5" acceptableDuration="300" value="2886.0"/>
                    <iidm:temporaryLimit name="SUR1" acceptableDuration="60"/>
                </iidm:currentLimits>
            </iidm:operationalLimitsGroup1>
            <iidm:operationalLimitsGroup1 id="E1 PROT TLIM">
                <iidm:currentLimits permanentLimit="1659.0">
                    <iidm:temporaryLimit name="SUR20" acceptableDuration="1200" value="1832.0"/>
                    <iidm:temporaryLimit name="SUR5" acceptableDuration="300" value="2886.0"/>
                    <iidm:temporaryLimit name="SUR1" acceptableDuration="60"/>
                </iidm:currentLimits>
            </iidm:operationalLimitsGroup1>
            <iidm:operationalLimitsGroup1 id="E1 PROT TR">
                <iidm:currentLimits permanentLimit="9999.0"/>
            </iidm:operationalLimitsGroup1>
            <iidm:operationalLimitsGroup1 id="H1 PROT">
                <iidm:currentLimits permanentLimit="1803.0">
                    <iidm:temporaryLimit name="SUR20" acceptableDuration="1200" value="2164.0"/>
                    <iidm:temporaryLimit name="SUR5" acceptableDuration="300" value="2886.0"/>
                    <iidm:temporaryLimit name="SUR1" acceptableDuration="60"/>
                </iidm:currentLimits>
            </iidm:operationalLimitsGroup1>
            <iidm:operationalLimitsGroup1 id="H1 PROT TLIM">
                <iidm:currentLimits permanentLimit="1803.0">
                    <iidm:temporaryLimit name="SUR20" acceptableDuration="1200" value="1991.0"/>
                    <iidm:temporaryLimit name="SUR5" acceptableDuration="300" value="2886.0"/>
                    <iidm:temporaryLimit name="SUR1" acceptableDuration="60"/>
                </iidm:currentLimits>
            </iidm:operationalLimitsGroup1>
            <iidm:operationalLimitsGroup1 id="H2 PROT">
                <iidm:currentLimits permanentLimit="1948.0">
                    <iidm:temporaryLimit name="SUR20" acceptableDuration="1200" value="2164.0"/>
                    <iidm:temporaryLimit name="SUR5" acceptableDuration="300" value="2886.0"/>
                    <iidm:temporaryLimit name="SUR1" acceptableDuration="60"/>
                </iidm:currentLimits>
            </iidm:operationalLimitsGroup1>
            <iidm:operationalLimitsGroup1 id="H2 PROT TLIM">
                <iidm:currentLimits permanentLimit="1948.0">
                    <iidm:temporaryLimit name="SUR20" acceptableDuration="1200" value="2135.0"/>
                    <iidm:temporaryLimit name="SUR5" acceptableDuration="300" value="2886.0"/>
                    <iidm:temporaryLimit name="SUR1" acceptableDuration="60"/>
                </iidm:currentLimits>
            </iidm:operationalLimitsGroup1>
        </iidm:twoWindingsTransformer>
        <iidm:twoWindingsTransformer id="GEN.PY761" r="0.17217104136943817" x="-2.5252437591552734" g="0.0" b="0.0" ratedU1="388.0" ratedU2="240.0" voltageLevelId1="1GEN.P7" node1="2" voltageLevelId2="GEN.PP6" node2="5" p1="86.15798452801006" q1="16.443089878550012" p2="-86.1359640401154" q2="-16.766065793427433" selectedOperationalLimitsGroupId2="DEFAULT">
            <iidm:property name="STUDY_IT" value="E1 J, E1 J TLIM, H1 J, H1 J TLIM, H2 J, H2 J TLIM"/>
            <iidm:property name="activeLimitId1" value="E1 J TR"/>
            <iidm:property name="STUDY_activeLimitId1" value="E1 J"/>
            <iidm:property name="STUDY_PROTECTION" value="E1 PROT, H1 PROT, H2 PROT"/>
            <iidm:property name="TR_IT" value="E1 J TR"/>
            <iidm:property name="codeOI" value="GEN.P-Y761.2"/>
            <iidm:ratioTapChanger lowTapPosition="0" tapPosition="0" loadTapChangingCapabilities="false">
                <iidm:terminalRef id="GEN.PY761" side="TWO"/>
                <iidm:step r="0.0" x="0.0" g="0.0" b="0.0" rho="0.9569377899169922"/>
                <iidm:step r="0.0" x="0.0" g="0.0" b="0.0" rho="1.0"/>
                <iidm:step r="0.0" x="0.0" g="0.0" b="0.0" rho="1.0427528619766235"/>
            </iidm:ratioTapChanger>
            <iidm:operationalLimitsGroup1 id="E1 J">
                <iidm:currentLimits permanentLimit="1659.0">
                    <iidm:temporaryLimit name="IT20" acceptableDuration="1200" value="2164.0"/>
                    <iidm:temporaryLimit name="IT5" acceptableDuration="300" value="2886.0"/>
                    <iidm:temporaryLimit name="IT" acceptableDuration="1"/>
                </iidm:currentLimits>
            </iidm:operationalLimitsGroup1>
            <iidm:operationalLimitsGroup1 id="E1 J TLIM">
                <iidm:currentLimits permanentLimit="1659.0">
                    <iidm:temporaryLimit name="IT20" acceptableDuration="1200" value="1832.0"/>
                    <iidm:temporaryLimit name="IT5" acceptableDuration="300" value="2886.0"/>
                    <iidm:temporaryLimit name="IT" acceptableDuration="1"/>
                </iidm:currentLimits>
            </iidm:operationalLimitsGroup1>
            <iidm:operationalLimitsGroup1 id="E1 J TR">
                <iidm:currentLimits permanentLimit="1659.0">
                    <iidm:temporaryLimit name="IT20" acceptableDuration="1200" value="2164.0"/>
                    <iidm:temporaryLimit name="IT5" acceptableDuration="300" value="2886.0"/>
                    <iidm:temporaryLimit name="IT" acceptableDuration="1"/>
                </iidm:currentLimits>
            </iidm:operationalLimitsGroup1>
            <iidm:operationalLimitsGroup1 id="H1 J">
                <iidm:currentLimits permanentLimit="1803.0">
                    <iidm:temporaryLimit name="IT20" acceptableDuration="1200" value="2164.0"/>
                    <iidm:temporaryLimit name="IT5" acceptableDuration="300" value="2886.0"/>
                    <iidm:temporaryLimit name="IT" acceptableDuration="1"/>
                </iidm:currentLimits>
            </iidm:operationalLimitsGroup1>
            <iidm:operationalLimitsGroup1 id="H1 J TLIM">
                <iidm:currentLimits permanentLimit="1803.0">
                    <iidm:temporaryLimit name="IT20" acceptableDuration="1200" value="1991.0"/>
                    <iidm:temporaryLimit name="IT5" acceptableDuration="300" value="2886.0"/>
                    <iidm:temporaryLimit name="IT" acceptableDuration="1"/>
                </iidm:currentLimits>
            </iidm:operationalLimitsGroup1>
            <iidm:operationalLimitsGroup1 id="H2 J">
                <iidm:currentLimits permanentLimit="1948.0">
                    <iidm:temporaryLimit name="IT20" acceptableDuration="1200" value="2164.0"/>
                    <iidm:temporaryLimit name="IT5" acceptableDuration="300" value="2886.0"/>
                    <iidm:temporaryLimit name="IT" acceptableDuration="1"/>
                </iidm:currentLimits>
            </iidm:operationalLimitsGroup1>
            <iidm:operationalLimitsGroup1 id="H2 J TLIM">
                <iidm:currentLimits permanentLimit="1948.0">
                    <iidm:temporaryLimit name="IT20" acceptableDuration="1200" value="2135.0"/>
                    <iidm:temporaryLimit name="IT5" acceptableDuration="300" value="2886.0"/>
                    <iidm:temporaryLimit name="IT" acceptableDuration="1"/>
                </iidm:currentLimits>
            </iidm:operationalLimitsGroup1>
            <iidm:operationalLimitsGroup2 id="DEFAULT">
                <iidm:currentLimits permanentLimit="1659.0">
                    <iidm:temporaryLimit name="IT20" acceptableDuration="1200" value="2164.0"/>
                    <iidm:temporaryLimit name="IT5" acceptableDuration="300" value="2886.0"/>
                    <iidm:temporaryLimit name="IT" acceptableDuration="1"/>
                </iidm:currentLimits>
            </iidm:operationalLimitsGroup2>
            <iidm:operationalLimitsGroup2 id="E1 PROT">
                <iidm:currentLimits permanentLimit="2886.0">
                    <iidm:temporaryLimit name="SUR3s" acceptableDuration="3"/>
                </iidm:currentLimits>
            </iidm:operationalLimitsGroup2>
            <iidm:operationalLimitsGroup2 id="H1 PROT">
                <iidm:currentLimits permanentLimit="2886.0">
                    <iidm:temporaryLimit name="SUR3s" acceptableDuration="3"/>
                </iidm:currentLimits>
            </iidm:operationalLimitsGroup2>
            <iidm:operationalLimitsGroup2 id="H2 PROT">
                <iidm:currentLimits permanentLimit="2886.0">
                    <iidm:temporaryLimit name="SUR3s" acceptableDuration="3"/>
                </iidm:currentLimits>
            </iidm:operationalLimitsGroup2>
        </iidm:twoWindingsTransformer>
        <iidm:twoWindingsTransformer id="GEN.PY762" r="0.16834880411624908" x="13.812317848205566" g="2.61805553236627E-6" b="-1.951390913745854E-5" ratedU1="388.0" ratedU2="240.0" voltageLevelId1="GEN.PP7" node1="4" voltageLevelId2="GEN.PP6" node2="4" p1="76.8147872623373" q1="17.71382208130548" p2="-76.63888439489888" q2="-15.12993144983869" selectedOperationalLimitsGroupId2="DEFAULT">
            <iidm:property name="STUDY_IT" value="E1 J, E1 J TLIM, H1 J, H1 J TLIM, H2 J, H2 J TLIM"/>
            <iidm:property name="activeLimitId2" value="E1 PROT TR"/>
            <iidm:property name="STUDY_PROTECTION" value="E1 PROT, E1 PROT TLIM, H1 PROT, H1 PROT TLIM, H2 PROT, H2 PROT TLIM"/>
            <iidm:property name="STUDY_activeLimitId2" value="E1 PROT"/>
            <iidm:property name="TR_PROTECTION" value="E1 PROT TR"/>
            <iidm:property name="codeOI" value="GEN.P-Y762"/>
            <iidm:ratioTapChanger lowTapPosition="0" tapPosition="0" loadTapChangingCapabilities="false">
                <iidm:terminalRef id="GEN.PY762" side="TWO"/>
                <iidm:step r="0.0" x="0.0" g="0.0" b="0.0" rho="0.9569377899169922"/>
                <iidm:step r="0.0" x="0.0" g="0.0" b="0.0" rho="1.0"/>
                <iidm:step r="0.0" x="0.0" g="0.0" b="0.0" rho="1.0427528619766235"/>
            </iidm:ratioTapChanger>
            <iidm:operationalLimitsGroup2 id="DEFAULT">
                <iidm:currentLimits permanentLimit="1540.0">
                    <iidm:temporaryLimit name="SUR20" acceptableDuration="1200" value="2164.0"/>
                    <iidm:temporaryLimit name="SUR5" acceptableDuration="300" value="2886.0"/>
                    <iidm:temporaryLimit name="SUR1" acceptableDuration="60" value="2886.0"/>
                    <iidm:temporaryLimit name="SUR3s" acceptableDuration="3"/>
                </iidm:currentLimits>
            </iidm:operationalLimitsGroup2>
            <iidm:operationalLimitsGroup2 id="E1 J">
                <iidm:currentLimits permanentLimit="1540.0">
                    <iidm:temporaryLimit name="IT20" acceptableDuration="1200" value="2164.0"/>
                    <iidm:temporaryLimit name="IT5" acceptableDuration="300" value="2886.0"/>
                    <iidm:temporaryLimit name="IT" acceptableDuration="1"/>
                </iidm:currentLimits>
            </iidm:operationalLimitsGroup2>
            <iidm:operationalLimitsGroup2 id="E1 J TLIM">
                <iidm:currentLimits permanentLimit="1540.0">
                    <iidm:temporaryLimit name="IT20" acceptableDuration="1200" value="1832.0"/>
                    <iidm:temporaryLimit name="IT5" acceptableDuration="300" value="2886.0"/>
                    <iidm:temporaryLimit name="IT" acceptableDuration="1"/>
                </iidm:currentLimits>
            </iidm:operationalLimitsGroup2>
            <iidm:operationalLimitsGroup2 id="E1 PROT">
                <iidm:currentLimits permanentLimit="1540.0">
                    <iidm:temporaryLimit name="SUR20" acceptableDuration="1200" value="2164.0"/>
                    <iidm:temporaryLimit name="SUR5" acceptableDuration="300" value="2886.0"/>
                    <iidm:temporaryLimit name="SUR1" acceptableDuration="60" value="2886.0"/>
                    <iidm:temporaryLimit name="SUR3s" acceptableDuration="3"/>
                </iidm:currentLimits>
            </iidm:operationalLimitsGroup2>
            <iidm:operationalLimitsGroup2 id="E1 PROT TLIM">
                <iidm:currentLimits permanentLimit="1540.0">
                    <iidm:temporaryLimit name="SUR20" acceptableDuration="1200" value="1832.0"/>
                    <iidm:temporaryLimit name="SUR5" acceptableDuration="300" value="2886.0"/>
                    <iidm:temporaryLimit name="SUR1" acceptableDuration="60"/>
                </iidm:currentLimits>
            </iidm:operationalLimitsGroup2>
            <iidm:operationalLimitsGroup2 id="E1 PROT TR">
                <iidm:currentLimits permanentLimit="1540.0">
                    <iidm:temporaryLimit name="SUR20" acceptableDuration="1200" value="2164.0"/>
                    <iidm:temporaryLimit name="SUR5" acceptableDuration="300" value="2886.0"/>
                    <iidm:temporaryLimit name="SUR1" acceptableDuration="60" value="2886.0"/>
                    <iidm:temporaryLimit name="SUR3s" acceptableDuration="3"/>
                </iidm:currentLimits>
            </iidm:operationalLimitsGroup2>
            <iidm:operationalLimitsGroup2 id="H1 J">
                <iidm:currentLimits permanentLimit="1803.0">
                    <iidm:temporaryLimit name="IT20" acceptableDuration="1200" value="2164.0"/>
                    <iidm:temporaryLimit name="IT5" acceptableDuration="300" value="2886.0"/>
                    <iidm:temporaryLimit name="IT" acceptableDuration="1"/>
                </iidm:currentLimits>
            </iidm:operationalLimitsGroup2>
            <iidm:operationalLimitsGroup2 id="H1 J TLIM">
                <iidm:currentLimits permanentLimit="1803.0">
                    <iidm:temporaryLimit name="IT20" acceptableDuration="1200" value="1991.0"/>
                    <iidm:temporaryLimit name="IT5" acceptableDuration="300" value="2886.0"/>
                    <iidm:temporaryLimit name="IT" acceptableDuration="1"/>
                </iidm:currentLimits>
            </iidm:operationalLimitsGroup2>
            <iidm:operationalLimitsGroup2 id="H1 PROT">
                <iidm:currentLimits permanentLimit="1803.0">
                    <iidm:temporaryLimit name="SUR20" acceptableDuration="1200" value="2164.0"/>
                    <iidm:temporaryLimit name="SUR5" acceptableDuration="300" value="2886.0"/>
                    <iidm:temporaryLimit name="SUR1" acceptableDuration="60" value="2886.0"/>
                    <iidm:temporaryLimit name="SUR3s" acceptableDuration="3"/>
                </iidm:currentLimits>
            </iidm:operationalLimitsGroup2>
            <iidm:operationalLimitsGroup2 id="H1 PROT TLIM">
                <iidm:currentLimits permanentLimit="1803.0">
                    <iidm:temporaryLimit name="SUR20" acceptableDuration="1200" value="1991.0"/>
                    <iidm:temporaryLimit name="SUR5" acceptableDuration="300" value="2886.0"/>
                    <iidm:temporaryLimit name="SUR1" acceptableDuration="60"/>
                </iidm:currentLimits>
            </iidm:operationalLimitsGroup2>
            <iidm:operationalLimitsGroup2 id="H2 J">
                <iidm:currentLimits permanentLimit="1948.0">
                    <iidm:temporaryLimit name="IT20" acceptableDuration="1200" value="2164.0"/>
                    <iidm:temporaryLimit name="IT5" acceptableDuration="300" value="2886.0"/>
                    <iidm:temporaryLimit name="IT" acceptableDuration="1"/>
                </iidm:currentLimits>
            </iidm:operationalLimitsGroup2>
            <iidm:operationalLimitsGroup2 id="H2 J TLIM">
                <iidm:currentLimits permanentLimit="1948.0">
                    <iidm:temporaryLimit name="IT20" acceptableDuration="1200" value="2135.0"/>
                    <iidm:temporaryLimit name="IT5" acceptableDuration="300" value="2886.0"/>
                    <iidm:temporaryLimit name="IT" acceptableDuration="1"/>
                </iidm:currentLimits>
            </iidm:operationalLimitsGroup2>
            <iidm:operationalLimitsGroup2 id="H2 PROT">
                <iidm:currentLimits permanentLimit="1948.0">
                    <iidm:temporaryLimit name="SUR20" acceptableDuration="1200" value="2164.0"/>
                    <iidm:temporaryLimit name="SUR5" acceptableDuration="300" value="2886.0"/>
                    <iidm:temporaryLimit name="SUR1" acceptableDuration="60" value="2886.0"/>
                    <iidm:temporaryLimit name="SUR3s" acceptableDuration="3"/>
                </iidm:currentLimits>
            </iidm:operationalLimitsGroup2>
            <iidm:operationalLimitsGroup2 id="H2 PROT TLIM">
                <iidm:currentLimits permanentLimit="1948.0">
                    <iidm:temporaryLimit name="SUR20" acceptableDuration="1200" value="2135.0"/>
                    <iidm:temporaryLimit name="SUR5" acceptableDuration="300" value="2886.0"/>
                    <iidm:temporaryLimit name="SUR1" acceptableDuration="60"/>
                </iidm:currentLimits>
            </iidm:operationalLimitsGroup2>
        </iidm:twoWindingsTransformer>
    </iidm:substation>
    <iidm:substation id="GROSN" country="FR" tso="RTE">
        <iidm:property name="paysCvg" value="FRANCE"/>
        <iidm:property name="regionCvg" value="NANCY"/>
        <iidm:voltageLevel id="1GROSP7" nominalV="400.0" lowVoltageLimit="280.0" highVoltageLimit="520.0" topologyKind="NODE_BREAKER">
            <iidm:property name="codeOI" value="1GROS-P71"/>
            <iidm:nodeBreakerTopology>
                <iidm:busbarSection id="1GROSP7_1" name="1" node="0"/>
                <iidm:switch id="1GROSP7_1GROSP7-1GROSP7.SJB.0-GROSNAT761E1SA_F" name="1GROSP7-1GROSP7.SJB.0-GROSNAT761E1SA_F" fictitious="true" kind="DISCONNECTOR" retained="false" open="false" node1="0" node2="1"/>
                <iidm:switch id="1GROSP7_1GROSP7-1GROSP7.SJB.0-GROSNAT761E2SA_F" name="1GROSP7-1GROSP7.SJB.0-GROSNAT761E2SA_F" fictitious="true" kind="DISCONNECTOR" retained="false" open="false" node1="0" node2="2"/>
                <iidm:switch id="1GROSP7_1GROSP7-1GROSP7.SJB.0-GROSNAT761E3SA_F" name="1GROSP7-1GROSP7.SJB.0-GROSNAT761E3SA_F" fictitious="true" kind="DISCONNECTOR" retained="false" open="false" node1="0" node2="3"/>
                <iidm:bus v="412.42841981530995" angle="-2.5927760181002033" nodes="0,1,2,3"/>
            </iidm:nodeBreakerTopology>
            <iidm:load id="GROSNY711" loadType="FICTITIOUS" p0="0.06570751532160202" q0="66.86068014709326" node="3" p="0.06570751532160202" q="66.86068014709326"/>
        </iidm:voltageLevel>
        <iidm:voltageLevel id="GROSNP6" nominalV="225.0" lowVoltageLimit="220.0" highVoltageLimit="245.00001525878906" topologyKind="NODE_BREAKER">
            <iidm:property name="codeOI" value="GROSN-P61"/>
            <iidm:nodeBreakerTopology>
                <iidm:busbarSection id="GROSNP6_1" name="1" node="0"/>
                <iidm:busbarSection id="GROSNP6_2" name="2" node="1"/>
                <iidm:switch id="GROSNP6_GROSN6AT762 SA.2_OC" name="GROSN6AT762 SA.2_OC" kind="DISCONNECTOR" retained="false" open="false" node1="1" node2="10"/>
                <iidm:switch id="GROSNP6_GROSN6CURTI.1 SA.1_OC" name="GROSN6CURTI.1 SA.1_OC" kind="DISCONNECTOR" retained="false" open="true" node1="0" node2="11"/>
                <iidm:switch id="GROSNP6_GROSN6COUPL SA.2_OC" name="GROSN6COUPL SA.2_OC" kind="DISCONNECTOR" retained="false" open="false" node1="1" node2="12"/>
                <iidm:switch id="GROSNP6_GROSN6COUPL SA.1_OC" name="GROSN6COUPL SA.1_OC" kind="DISCONNECTOR" retained="false" open="false" node1="13" node2="0"/>
                <iidm:switch id="GROSNP6_GROSN6AT762 SA.1_OC" name="GROSN6AT762 SA.1_OC" kind="DISCONNECTOR" retained="false" open="true" node1="0" node2="10"/>
                <iidm:switch id="GROSNP6_GROSN6CURTI.1 SA.2_OC" name="GROSN6CURTI.1 SA.2_OC" kind="DISCONNECTOR" retained="false" open="false" node1="1" node2="11"/>
                <iidm:switch id="GROSNP6_GROSN6CHALO.2 SA.1_OC" name="GROSN6CHALO.2 SA.1_OC" kind="DISCONNECTOR" retained="false" open="true" node1="0" node2="14"/>
                <iidm:switch id="GROSNP6_GROSN6GUEUG.1 SA.2_OC" name="GROSN6GUEUG.1 SA.2_OC" kind="DISCONNECTOR" retained="false" open="false" node1="1" node2="15"/>
                <iidm:switch id="GROSNP6_GROSN6CHALO.1 SA.1_OC" name="GROSN6CHALO.1 SA.1_OC" kind="DISCONNECTOR" retained="false" open="false" node1="0" node2="16"/>
                <iidm:switch id="GROSNP6_GROSN6MACON.1 SA.2_OC" name="GROSN6MACON.1 SA.2_OC" kind="DISCONNECTOR" retained="false" open="true" node1="1" node2="17"/>
                <iidm:switch id="GROSNP6_GROSN6GUEUG.1 SA.1_OC" name="GROSN6GUEUG.1 SA.1_OC" kind="DISCONNECTOR" retained="false" open="true" node1="0" node2="15"/>
                <iidm:switch id="GROSNP6_GROSN6ZCUR5.1 SA.2_OC" name="GROSN6ZCUR5.1 SA.2_OC" kind="DISCONNECTOR" retained="false" open="true" node1="1" node2="18"/>
                <iidm:switch id="GROSNP6_GROSN6CHALO.2 SA.2_OC" name="GROSN6CHALO.2 SA.2_OC" kind="DISCONNECTOR" retained="false" open="false" node1="1" node2="14"/>
                <iidm:switch id="GROSNP6_GROSN6ZCUR5.1 SA.1_OC" name="GROSN6ZCUR5.1 SA.1_OC" kind="DISCONNECTOR" retained="false" open="false" node1="0" node2="18"/>
                <iidm:switch id="GROSNP6_GROSN6AT761 SA.2_OC" name="GROSN6AT761 SA.2_OC" kind="DISCONNECTOR" retained="false" open="true" node1="1" node2="19"/>
                <iidm:switch id="GROSNP6_GROSN6MACON.1 SA.1_OC" name="GROSN6MACON.1 SA.1_OC" kind="DISCONNECTOR" retained="false" open="false" node1="0" node2="17"/>
                <iidm:switch id="GROSNP6_GROSN6AT761 SA.1_OC" name="GROSN6AT761 SA.1_OC" kind="DISCONNECTOR" retained="false" open="false" node1="0" node2="19"/>
                <iidm:switch id="GROSNP6_GROSN6CHALO.1 SA.2_OC" name="GROSN6CHALO.1 SA.2_OC" kind="DISCONNECTOR" retained="false" open="true" node1="1" node2="16"/>
                <iidm:switch id="GROSNP6_GROSN6AT761 DJ_OC" name="GROSN6AT761 DJ_OC" kind="BREAKER" retained="true" open="false" node1="19" node2="3"/>
                <iidm:switch id="GROSNP6_GROSN6AT762 DJ_OC" name="GROSN6AT762 DJ_OC" kind="BREAKER" retained="true" open="false" node1="10" node2="2"/>
                <iidm:switch id="GROSNP6_GROSN6GUEUG.1 DJ_OC" name="GROSN6GUEUG.1 DJ_OC" kind="BREAKER" retained="true" open="false" node1="15" node2="7"/>
                <iidm:switch id="GROSNP6_GROSN6CHALO.2 DJ_OC" name="GROSN6CHALO.2 DJ_OC" kind="BREAKER" retained="true" open="false" node1="14" node2="5"/>
                <iidm:switch id="GROSNP6_GROSN6CURTI.1 DJ_OC" name="GROSN6CURTI.1 DJ_OC" kind="BREAKER" retained="true" open="false" node1="11" node2="4"/>
                <iidm:switch id="GROSNP6_GROSN6MACON.1 DJ_OC" name="GROSN6MACON.1 DJ_OC" kind="BREAKER" retained="true" open="false" node1="17" node2="9"/>
                <iidm:switch id="GROSNP6_GROSN6COUPL DJ_OC" name="GROSN6COUPL DJ_OC" kind="BREAKER" retained="true" open="false" node1="12" node2="13"/>
                <iidm:switch id="GROSNP6_GROSN6CHALO.1 DJ_OC" name="GROSN6CHALO.1 DJ_OC" kind="BREAKER" retained="true" open="false" node1="16" node2="8"/>
                <iidm:switch id="GROSNP6_GROSN6ZCUR5.1 DJ_OC" name="GROSN6ZCUR5.1 DJ_OC" kind="BREAKER" retained="true" open="false" node1="18" node2="6"/>
                <iidm:bus v="243.31447922983375" angle="-2.2299919219935393" nodes="0,1,2,3,4,5,6,7,8,9,10,11,12,13,14,15,16,17,18,19"/>
            </iidm:nodeBreakerTopology>
        </iidm:voltageLevel>
        <iidm:voltageLevel id="GROSNP7" nominalV="400.0" lowVoltageLimit="390.0" highVoltageLimit="420.0" topologyKind="NODE_BREAKER">
            <iidm:property name="codeOI" value="GROSN-P71"/>
            <iidm:nodeBreakerTopology>
                <iidm:busbarSection id="GROSNP7_1" name="1" node="0"/>
                <iidm:busbarSection id="GROSNP7_2" name="2" node="1"/>
                <iidm:switch id="GROSNP7_GROSN7VIELM.1 SA.1_OC" name="GROSN7VIELM.1 SA.1_OC" kind="DISCONNECTOR" retained="false" open="false" node1="0" node2="6"/>
                <iidm:switch id="GROSNP7_GROSN7VIELM.1 SA.2_OC" name="GROSN7VIELM.1 SA.2_OC" kind="DISCONNECTOR" retained="false" open="true" node1="1" node2="6"/>
                <iidm:switch id="GROSNP7_GROSN7COUPL SA.1_OC" name="GROSN7COUPL SA.1_OC" kind="DISCONNECTOR" retained="false" open="false" node1="7" node2="0"/>
                <iidm:switch id="GROSNP7_GROSN7AT761 SA.2_OC" name="GROSN7AT761 SA.2_OC" kind="DISCONNECTOR" retained="false" open="true" node1="1" node2="8"/>
                <iidm:switch id="GROSNP7_GROSN7AT761 SA.1_OC" name="GROSN7AT761 SA.1_OC" kind="DISCONNECTOR" retained="false" open="false" node1="0" node2="8"/>
                <iidm:switch id="GROSNP7_GROSN7COUPL SA.2_OC" name="GROSN7COUPL SA.2_OC" kind="DISCONNECTOR" retained="false" open="false" node1="1" node2="9"/>
                <iidm:switch id="GROSNP7_GROSN7SSV.O.1 SA.1_OC" name="GROSN7SSV.O.1 SA.1_OC" kind="DISCONNECTOR" retained="false" open="true" node1="0" node2="10"/>
                <iidm:switch id="GROSNP7_GROSN7AT762 SA.1_OC" name="GROSN7AT762 SA.1_OC" kind="DISCONNECTOR" retained="false" open="true" node1="0" node2="11"/>
                <iidm:switch id="GROSNP7_GROSN7AT762 SA.2_OC" name="GROSN7AT762 SA.2_OC" kind="DISCONNECTOR" retained="false" open="false" node1="1" node2="11"/>
                <iidm:switch id="GROSNP7_GROSN7SSV.O.1 SA.2_OC" name="GROSN7SSV.O.1 SA.2_OC" kind="DISCONNECTOR" retained="false" open="false" node1="1" node2="10"/>
                <iidm:switch id="GROSNP7_GROSN7COUPL DJ_OC" name="GROSN7COUPL DJ_OC" kind="BREAKER" retained="true" open="false" node1="9" node2="7"/>
                <iidm:switch id="GROSNP7_GROSN7VIELM.1 DJ_OC" name="GROSN7VIELM.1 DJ_OC" kind="BREAKER" retained="true" open="false" node1="6" node2="4"/>
                <iidm:switch id="GROSNP7_GROSN7SSV.O.1 DJ_OC" name="GROSN7SSV.O.1 DJ_OC" kind="BREAKER" retained="true" open="false" node1="10" node2="5"/>
                <iidm:switch id="GROSNP7_GROSN7AT761 DJ_OC" name="GROSN7AT761 DJ_OC" kind="BREAKER" retained="true" open="false" node1="8" node2="3"/>
                <iidm:switch id="GROSNP7_GROSN7AT762 DJ_OC" name="GROSN7AT762 DJ_OC" kind="BREAKER" retained="true" open="false" node1="11" node2="2"/>
                <iidm:bus v="413.8913346779332" angle="-0.9034116320294595" nodes="0,1,2,3,4,5,6,7,8,9,10,11"/>
            </iidm:nodeBreakerTopology>
        </iidm:voltageLevel>
        <iidm:twoWindingsTransformer id="GROSNY771" r="0.2299998700618744" x="44.999996185302734" g="6.244021619750129E-7" b="-1.2933109019286348E-6" ratedU1="388.0" ratedU2="388.0" voltageLevelId1="GROSNP7" node1="3" voltageLevelId2="1GROSP7" node2="1" p1="112.01172570119009" q1="14.753658587943413" p2="-111.88766503788689" q2="-11.187078246843877" selectedOperationalLimitsGroupId1="DEFAULT">
            <iidm:property name="activeLimitId1" value="E1 PROT TR"/>
            <iidm:property name="STUDY_activeLimitId1" value="E1 PROT"/>
            <iidm:property name="STUDY_PROTECTION" value="E1 PROT, E1 PROT TLIM, H1 PROT, H1 PROT TLIM, H2 PROT, H2 PROT TLIM"/>
            <iidm:property name="TR_PROTECTION" value="E1 PROT TR"/>
            <iidm:property name="codeOI" value="GROSN-Y761.1"/>
            <iidm:ratioTapChanger lowTapPosition="0" tapPosition="0" loadTapChangingCapabilities="false">
                <iidm:terminalRef id="GROSNY771" side="TWO"/>
                <iidm:step r="0.0" x="0.0" g="0.0" b="0.0" rho="1.0"/>
            </iidm:ratioTapChanger>
            <iidm:operationalLimitsGroup1 id="DEFAULT">
                <iidm:currentLimits permanentLimit="9999.0"/>
            </iidm:operationalLimitsGroup1>
            <iidm:operationalLimitsGroup1 id="E1 PROT">
                <iidm:currentLimits permanentLimit="1659.0">
                    <iidm:temporaryLimit name="SUR20" acceptableDuration="1200" value="2164.0"/>
                    <iidm:temporaryLimit name="SUR5" acceptableDuration="300" value="2886.0"/>
                    <iidm:temporaryLimit name="SUR1" acceptableDuration="60"/>
                </iidm:currentLimits>
            </iidm:operationalLimitsGroup1>
            <iidm:operationalLimitsGroup1 id="E1 PROT TLIM">
                <iidm:currentLimits permanentLimit="1659.0">
                    <iidm:temporaryLimit name="SUR20" acceptableDuration="1200" value="1832.0"/>
                    <iidm:temporaryLimit name="SUR5" acceptableDuration="300" value="2886.0"/>
                    <iidm:temporaryLimit name="SUR1" acceptableDuration="60"/>
                </iidm:currentLimits>
            </iidm:operationalLimitsGroup1>
            <iidm:operationalLimitsGroup1 id="E1 PROT TR">
                <iidm:currentLimits permanentLimit="9999.0"/>
            </iidm:operationalLimitsGroup1>
            <iidm:operationalLimitsGroup1 id="H1 PROT">
                <iidm:currentLimits permanentLimit="1803.0">
                    <iidm:temporaryLimit name="SUR20" acceptableDuration="1200" value="2164.0"/>
                    <iidm:temporaryLimit name="SUR5" acceptableDuration="300" value="2886.0"/>
                    <iidm:temporaryLimit name="SUR1" acceptableDuration="60"/>
                </iidm:currentLimits>
            </iidm:operationalLimitsGroup1>
            <iidm:operationalLimitsGroup1 id="H1 PROT TLIM">
                <iidm:currentLimits permanentLimit="1803.0">
                    <iidm:temporaryLimit name="SUR20" acceptableDuration="1200" value="1991.0"/>
                    <iidm:temporaryLimit name="SUR5" acceptableDuration="300" value="2886.0"/>
                    <iidm:temporaryLimit name="SUR1" acceptableDuration="60"/>
                </iidm:currentLimits>
            </iidm:operationalLimitsGroup1>
            <iidm:operationalLimitsGroup1 id="H2 PROT">
                <iidm:currentLimits permanentLimit="1948.0">
                    <iidm:temporaryLimit name="SUR20" acceptableDuration="1200" value="2164.0"/>
                    <iidm:temporaryLimit name="SUR5" acceptableDuration="300" value="2886.0"/>
                    <iidm:temporaryLimit name="SUR1" acceptableDuration="60"/>
                </iidm:currentLimits>
            </iidm:operationalLimitsGroup1>
            <iidm:operationalLimitsGroup1 id="H2 PROT TLIM">
                <iidm:currentLimits permanentLimit="1948.0">
                    <iidm:temporaryLimit name="SUR20" acceptableDuration="1200" value="2135.0"/>
                    <iidm:temporaryLimit name="SUR5" acceptableDuration="300" value="2886.0"/>
                    <iidm:temporaryLimit name="SUR1" acceptableDuration="60"/>
                </iidm:currentLimits>
            </iidm:operationalLimitsGroup1>
        </iidm:twoWindingsTransformer>
        <iidm:twoWindingsTransformer id="GROSNY761" r="0.08417501300573349" x="-3.4052844047546387" g="0.0" b="0.0" ratedU1="388.0" ratedU2="240.0" voltageLevelId1="1GROSP7" node1="2" voltageLevelId2="GROSNP6" node2="3" p1="111.82195920890854" q1="-55.67359569819865" p2="-111.79992044829035" q2="54.78202176043464" selectedOperationalLimitsGroupId2="DEFAULT">
            <iidm:property name="STUDY_IT" value="E1 J, E1 J TLIM, H1 J, H1 J TLIM, H2 J, H2 J TLIM"/>
            <iidm:property name="activeLimitId1" value="E1 J TR"/>
            <iidm:property name="STUDY_activeLimitId1" value="E1 J"/>
            <iidm:property name="STUDY_PROTECTION" value="E1 PROT, H1 PROT, H2 PROT"/>
            <iidm:property name="TR_IT" value="E1 J TR"/>
            <iidm:property name="codeOI" value="GROSN-Y761.2"/>
            <iidm:ratioTapChanger lowTapPosition="0" tapPosition="0" loadTapChangingCapabilities="false">
                <iidm:terminalRef id="GROSNY761" side="TWO"/>
                <iidm:step r="0.0" x="0.0" g="0.0" b="0.0" rho="0.9569377899169922"/>
                <iidm:step r="0.0" x="0.0" g="0.0" b="0.0" rho="1.0"/>
                <iidm:step r="0.0" x="0.0" g="0.0" b="0.0" rho="1.0427528619766235"/>
            </iidm:ratioTapChanger>
            <iidm:operationalLimitsGroup1 id="E1 J">
                <iidm:currentLimits permanentLimit="1659.0">
                    <iidm:temporaryLimit name="IT20" acceptableDuration="1200" value="2164.0"/>
                    <iidm:temporaryLimit name="IT5" acceptableDuration="300" value="2886.0"/>
                    <iidm:temporaryLimit name="IT" acceptableDuration="1"/>
                </iidm:currentLimits>
            </iidm:operationalLimitsGroup1>
            <iidm:operationalLimitsGroup1 id="E1 J TLIM">
                <iidm:currentLimits permanentLimit="1659.0">
                    <iidm:temporaryLimit name="IT20" acceptableDuration="1200" value="1832.0"/>
                    <iidm:temporaryLimit name="IT5" acceptableDuration="300" value="2886.0"/>
                    <iidm:temporaryLimit name="IT" acceptableDuration="1"/>
                </iidm:currentLimits>
            </iidm:operationalLimitsGroup1>
            <iidm:operationalLimitsGroup1 id="E1 J TR">
                <iidm:currentLimits permanentLimit="1659.0">
                    <iidm:temporaryLimit name="IT20" acceptableDuration="1200" value="2164.0"/>
                    <iidm:temporaryLimit name="IT5" acceptableDuration="300" value="2886.0"/>
                    <iidm:temporaryLimit name="IT" acceptableDuration="1"/>
                </iidm:currentLimits>
            </iidm:operationalLimitsGroup1>
            <iidm:operationalLimitsGroup1 id="H1 J">
                <iidm:currentLimits permanentLimit="1803.0">
                    <iidm:temporaryLimit name="IT20" acceptableDuration="1200" value="2164.0"/>
                    <iidm:temporaryLimit name="IT5" acceptableDuration="300" value="2886.0"/>
                    <iidm:temporaryLimit name="IT" acceptableDuration="1"/>
                </iidm:currentLimits>
            </iidm:operationalLimitsGroup1>
            <iidm:operationalLimitsGroup1 id="H1 J TLIM">
                <iidm:currentLimits permanentLimit="1803.0">
                    <iidm:temporaryLimit name="IT20" acceptableDuration="1200" value="1991.0"/>
                    <iidm:temporaryLimit name="IT5" acceptableDuration="300" value="2886.0"/>
                    <iidm:temporaryLimit name="IT" acceptableDuration="1"/>
                </iidm:currentLimits>
            </iidm:operationalLimitsGroup1>
            <iidm:operationalLimitsGroup1 id="H2 J">
                <iidm:currentLimits permanentLimit="1948.0">
                    <iidm:temporaryLimit name="IT20" acceptableDuration="1200" value="2164.0"/>
                    <iidm:temporaryLimit name="IT5" acceptableDuration="300" value="2886.0"/>
                    <iidm:temporaryLimit name="IT" acceptableDuration="1"/>
                </iidm:currentLimits>
            </iidm:operationalLimitsGroup1>
            <iidm:operationalLimitsGroup1 id="H2 J TLIM">
                <iidm:currentLimits permanentLimit="1948.0">
                    <iidm:temporaryLimit name="IT20" acceptableDuration="1200" value="2135.0"/>
                    <iidm:temporaryLimit name="IT5" acceptableDuration="300" value="2886.0"/>
                    <iidm:temporaryLimit name="IT" acceptableDuration="1"/>
                </iidm:currentLimits>
            </iidm:operationalLimitsGroup1>
            <iidm:operationalLimitsGroup2 id="DEFAULT">
...